102
Violanthrone-79 MMFF geometry
C -4.373830 6.711545 -3.002154
C -5.149121 5.408643 -2.880423
C -4.282347 4.208937 -2.488846
C -3.648269 4.348640 -1.103003
C -3.043903 3.041209 -0.585749
C -1.822788 2.565100 -1.376891
C -1.303478 1.241548 -0.815701
C -0.034379 0.773231 -1.535255
O 0.465212 -0.479437 -1.046793
C -0.284871 -1.624740 -1.192840
C 0.002866 -2.749385 -0.343933
C -0.619054 -3.965919 -0.761451
C -0.255400 -5.190500 -0.141405
C -0.945564 -6.365989 -0.525947
C -1.923257 -6.379994 -1.504499
C -2.242563 -5.202388 -2.155559
C -1.612107 -3.993166 -1.819410
C -1.948409 -2.835816 -2.536492
C -1.216606 -1.692450 -2.242745
C -2.996575 -2.844943 -3.594470
C -3.424207 -1.693508 -4.287521
C -4.412406 -1.748742 -5.279990
C -5.012508 -2.958162 -5.604605
C -4.627065 -4.109682 -4.930337
C -3.635105 -4.045075 -3.937604
C -3.267371 -5.278188 -3.222909
O -3.804607 -6.344129 -3.507485
C 0.778079 -5.228752 0.836014
C 1.305973 -4.026075 1.379362
C 0.871307 -2.765351 0.865726
C 1.324595 -1.629946 1.628303
C 2.219025 -1.755703 2.705254
C 2.747316 -2.974433 3.117336
C 2.267898 -4.119893 2.461742
C 2.722106 -5.381580 2.882460
C 2.261587 -6.544311 2.291657
C 1.300214 -6.460831 1.300722
C 3.702487 -5.530563 3.981501
O 4.099022 -6.638550 4.325260
C 4.192285 -4.319982 4.659899
C 5.111533 -4.462790 5.712466
C 5.594632 -3.340580 6.372126
C 5.161315 -2.082584 5.976484
C 4.249154 -1.948227 4.920613
C 3.730266 -3.065942 4.234002
O 0.762234 -0.400641 1.366275
C 1.372300 0.808199 1.841493
C 2.715142 1.103469 1.164159
C 3.416180 2.344340 1.721058
C 2.677922 3.675629 1.537048
C 2.531347 4.085226 0.071559
C 1.770429 5.398995 -0.145682
C 2.455927 6.637261 0.440153
C 1.891676 7.051426 1.792543
H -3.546955 6.612157 -3.711004
H -3.969040 7.029696 -2.038398
H -5.033802 7.507697 -3.361487
H -5.623804 5.191535 -3.844235
H -5.958284 5.536494 -2.152431
H -4.913551 3.310735 -2.513090
H -3.502086 4.064451 -3.245367
H -4.413020 4.672568 -0.387643
H -2.874918 5.123526 -1.118620
H -3.814295 2.260160 -0.583735
H -2.749129 3.191641 0.460672
H -1.034334 3.326437 -1.329825
H -2.083631 2.421590 -2.431398
H -2.093486 0.486774 -0.886317
H -1.101682 1.339885 0.255367
H 0.755218 1.505690 -1.344896
H -0.140199 0.757778 -2.625128
H -0.760671 -7.323177 -0.046744
H -2.418802 -7.313698 -1.760683
H -1.362765 -0.823315 -2.867034
H -3.009275 -0.712634 -4.075909
H -4.715231 -0.838976 -5.792994
H -5.783744 -3.004338 -6.369364
H -5.101430 -5.059753 -5.169463
H 2.501056 -0.868110 3.252265
H 2.628792 -7.518813 2.606803
H 0.984748 -7.412928 0.882377
H 5.451382 -5.452824 6.011486
H 6.306180 -3.447053 7.186427
H 5.535065 -1.197559 6.486032
H 3.965616 -0.933158 4.661448
H 1.429971 0.819935 2.935825
H 0.673313 1.612585 1.591162
H 3.394307 0.251455 1.283889
H 2.574270 1.189530 0.082133
H 4.405364 2.421579 1.253166
H 3.596922 2.193175 2.792390
H 3.260183 4.439247 2.064615
H 1.694684 3.637763 2.019149
H 1.994286 3.304395 -0.474586
H 3.523834 4.161401 -0.389063
H 0.743640 5.306193 0.229668
H 1.688702 5.544889 -1.231160
H 3.538652 6.485411 0.515635
H 2.305657 7.477587 -0.249211
H 0.831089 7.307592 1.706809
H 1.986292 6.256606 2.537840
H 2.420670 7.933734 2.169110
